ckt7_Mon_rfi_07_der000.csv
fault_bus,fault_type,fault_R_ohm,Va_mag_pu,Va_ang_deg,Vb_mag_pu,Vb_ang_deg,Vc_mag_pu,Vc_ang_deg,Ia_mag_A,Ia_ang_deg,Ib_mag_A,Ib_ang_deg,Ic_mag_A,Ic_ang_deg
318412,SLG,0,0.128433,-114.642,1.042675,-150.8874,1.041507,89.0419,0.1615,-142.0657,1.2852,-178.341,1.3213,61.6303
318412,SLG,10,1.038217,-30.9872,1.041229,-150.7628,1.037416,89.1847,1.2351,-58.4948,1.2869,-178.2125,1.3263,61.7844
318412,SLG,20,1.038223,-30.9643,1.041231,-150.7628,1.037415,89.1846,1.2351,-58.4719,1.2869,-178.2124,1.3263,61.7844
318412,SLG,30,1.038225,-30.9567,1.041232,-150.7628,1.037414,89.1846,1.2351,-58.4643,1.2869,-178.2124,1.3264,61.7843
318412,SLG,40,1.038226,-30.9529,1.041232,-150.7628,1.037414,89.1846,1.2351,-58.4605,1.2869,-178.2124,1.3264,61.7843
318412,LL,0,0.125329,-113.1302,0.131727,125.7154,1.041151,88.9618,0.1576,-140.5536,0.1729,98.352,1.3218,61.5514
318412,LL,10,1.038219,-30.987,1.041217,-150.8085,1.037412,89.1847,1.2351,-58.4946,1.2869,-178.2581,1.3264,61.7844
318412,LL,20,1.038224,-30.9643,1.041225,-150.7856,1.037412,89.1846,1.2351,-58.4719,1.2869,-178.2352,1.3264,61.7844
318412,LL,30,1.038226,-30.9567,1.041228,-150.778,1.037413,89.1846,1.2351,-58.4643,1.2869,-178.2276,1.3264,61.7843
318412,LL,40,1.038226,-30.9529,1.041229,-150.7742,1.037413,89.1846,1.2351,-58.4605,1.2869,-178.2238,1.3264,61.7843
318412,3LG,0,0.12951,-112.9692,0.1299,127.2114,0.129411,7.1667,0.1628,-140.3939,0.1705,99.8482,0.1744,-20.1606
318412,3LG,10,1.038215,-30.9871,1.04122,-150.8084,1.037399,89.139,1.2351,-58.4947,1.2869,-178.258,1.3264,61.7387
318412,3LG,20,1.038222,-30.9643,1.041227,-150.7856,1.037406,89.1618,1.2351,-58.4719,1.2869,-178.2352,1.3264,61.7615
318412,3LG,30,1.038224,-30.9567,1.041229,-150.778,1.037408,89.1694,1.2351,-58.4643,1.2869,-178.2276,1.3264,61.7691
318412,3LG,40,1.038225,-30.9529,1.04123,-150.7742,1.037409,89.1732,1.2351,-58.4605,1.2869,-178.2238,1.3264,61.7729
243937,SLG,0,0.005262,-40.8814,1.329467,174.1041,1.730434,103.1616,0.0066,-68.2642,1.5885,146.6032,2.1223,75.7002
243937,SLG,10,1.031697,-31.094,1.043517,-151.0169,1.040326,89.422,1.2426,-58.5826,1.2842,-178.4729,1.3228,62.0138
243937,SLG,20,1.034954,-31.018,1.042379,-150.8903,1.038869,89.3039,1.2388,-58.5161,1.2856,-178.3431,1.3246,61.8997
243937,SLG,30,1.036043,-30.9925,1.041998,-150.8479,1.038384,89.2643,1.2376,-58.4938,1.286,-178.2996,1.3252,61.8614
243937,SLG,40,1.036589,-30.9798,1.041807,-150.8266,1.038141,89.2444,1.237,-58.4826,1.2862,-178.2779,1.3255,61.8421
243937,LL,0,0.026883,-61.0681,0.02907,109.7537,1.481674,84.2656,0.0338,-88.4917,0.0382,82.3883,1.8172,56.8043
243937,LL,10,1.034602,-30.8573,1.037015,-151.1679,1.042561,89.1685,1.2392,-58.3543,1.292,-178.6057,1.32,61.7543
243937,LL,20,1.036404,-30.899,1.039116,-150.9659,1.040001,89.1767,1.2372,-58.4013,1.2894,-178.4097,1.3232,61.7694
243937,LL,30,1.03701,-30.913,1.03982,-150.8984,1.039142,89.1793,1.2365,-58.4171,1.2886,-178.344,1.3242,61.7744
243937,LL,40,1.037313,-30.9201,1.040173,-150.8645,1.038711,89.1806,1.2361,-58.4251,1.2882,-178.3112,1.3248,61.7768
243937,3LG,0,0.03223,-95.8975,0.032311,144.2837,0.032196,24.2225,0.0405,-123.3222,0.0424,116.9205,0.0434,-3.1048
243937,3LG,10,1.036871,-31.1103,1.039873,-150.9312,1.036051,89.0157,1.2366,-58.614,1.2885,-178.377,1.328,61.6191
243937,3LG,20,1.03755,-31.026,1.040554,-150.847,1.036732,89.1001,1.2359,-58.5316,1.2877,-178.2948,1.3272,61.7017
243937,3LG,30,1.037777,-30.9978,1.040781,-150.8189,1.036959,89.1282,1.2356,-58.5041,1.2875,-178.2673,1.3269,61.7292
243937,3LG,40,1.03789,-30.9837,1.040894,-150.8049,1.037073,89.1423,1.2355,-58.4904,1.2873,-178.2536,1.3268,61.743
157347,SLG,0,0.411565,-24.0625,1.093798,-168.9799,1.3466,96.191,0.5174,-51.4871,1.3069,163.5192,1.6515,68.7297
157347,SLG,10,1.029839,-31.4222,1.046161,-150.9874,1.038559,89.5342,1.2447,-58.9054,1.2811,-178.4509,1.3249,62.1308
157347,SLG,20,1.034032,-31.184,1.043725,-150.875,1.037961,89.3607,1.2399,-58.6794,1.284,-178.3316,1.3257,61.959
157347,SLG,30,1.035431,-31.1036,1.042901,-150.8376,1.037773,89.3023,1.2383,-58.6031,1.285,-178.2919,1.3259,61.9011
157347,SLG,40,1.03613,-31.0633,1.042486,-150.8189,1.037681,89.273,1.2375,-58.5648,1.2854,-178.272,1.326,61.872
157347,LL,0,0.507484,-33.1751,0.345565,-161.8529,1.257142,84.2499,0.6411,-60.5929,0.4536,170.7843,1.5418,56.7887
157347,LL,10,1.031008,-31.0711,1.037762,-151.4655,1.043438,89.3071,1.2434,-58.5577,1.2911,-178.9055,1.319,61.8904
157347,LL,20,1.034578,-31.0076,1.03953,-151.1164,1.040443,89.2482,1.2393,-58.5046,1.289,-178.5613,1.3226,61.8397
157347,LL,30,1.035785,-30.9859,1.040105,-150.999,1.039436,89.2275,1.2379,-58.4864,1.2883,-178.4455,1.3239,61.8217
157347,LL,40,1.036393,-30.9749,1.04039,-150.9402,1.038932,89.217,1.2372,-58.4772,1.2879,-178.3874,1.3245,61.8126
157347,3LG,0,0.445956,-42.8104,0.4471,-162.637,0.445537,77.3082,0.5606,-70.2351,0.5868,169.9998,0.6003,49.9809
157347,3LG,10,1.03588,-31.2969,1.038885,-151.1181,1.035068,88.829,1.2378,-58.7977,1.2897,-178.5612,1.3292,61.4351
157347,3LG,20,1.037063,-31.1198,1.040068,-150.941,1.036249,89.0062,1.2364,-58.624,1.2883,-178.3874,1.3278,61.6091
157347,3LG,30,1.037453,-31.0605,1.040458,-150.8817,1.036639,89.0656,1.236,-58.5658,1.2878,-178.3292,1.3273,61.6674
157347,3LG,40,1.037648,-31.0308,1.040653,-150.852,1.036833,89.0953,1.2358,-58.5367,1.2876,-178.3,1.3271,61.6966
298162,SLG,0,0.003673,166.4073,1.228369,-171.6878,1.400165,101.8057,0.0046,138.9603,1.4677,160.8113,1.7172,74.3443
298162,SLG,10,1.022224,-32.3907,1.053602,-150.9854,1.034898,89.8925,1.2536,-59.8519,1.2724,-178.4699,1.3295,62.499
298162,SLG,20,1.030249,-31.6715,1.047489,-150.8713,1.036044,89.5399,1.2443,-59.1559,1.2795,-178.3385,1.328,62.1433
298162,SLG,30,1.032914,-31.4294,1.04542,-150.8345,1.036475,89.4217,1.2412,-58.9215,1.282,-178.2958,1.3275,62.024
298162,SLG,40,1.034245,-31.3079,1.044379,-150.8163,1.0367,89.3625,1.2397,-58.8039,1.2832,-178.2747,1.3272,61.9642
298162,LL,0,0.002817,-37.6563,0.007948,97.2452,1.35188,86.2856,0.0035,-65.0995,0.0104,69.8686,1.658,58.8243
298162,LL,10,1.019663,-31.6754,1.037469,-152.4245,1.047236,89.6571,1.2567,-59.1293,1.2914,-179.8637,1.3144,62.2301
298162,LL,20,1.028843,-31.3147,1.039484,-151.5985,1.042306,89.4292,1.2459,-58.7951,1.289,-179.0433,1.3204,62.0157
298162,LL,30,1.031949,-31.1917,1.040097,-151.321,1.04067,89.3496,1.2423,-58.6811,1.2883,-178.7675,1.3224,61.9405
298162,LL,40,1.03351,-31.1297,1.040393,-151.1818,1.039854,89.3091,1.2405,-58.6236,1.2879,-178.6291,1.3234,61.9022
298162,3LG,0,0.005851,-101.4328,0.00586,138.685,0.005846,18.6433,0.0074,-128.8574,0.0077,111.3218,0.0079,-8.684
298162,3LG,10,1.03186,-31.9021,1.034892,-151.7256,1.031098,88.2236,1.2424,-59.3912,1.2945,-179.1575,1.3342,60.8404
298162,3LG,20,1.035072,-31.4232,1.038091,-151.2456,1.034284,88.7027,1.2387,-58.9216,1.2907,-178.6865,1.3302,61.3109
298162,3LG,30,1.03613,-31.2629,1.039145,-151.085,1.035333,88.863,1.2375,-58.7644,1.2894,-178.5288,1.3289,61.4684
298162,3LG,40,1.036657,-31.1827,1.039669,-151.0045,1.035855,88.9433,1.2369,-58.6857,1.2888,-178.4498,1.3283,61.5473
165448,SLG,0,0.003543,166.1688,1.233107,-171.3204,1.392596,102.0198,0.0044,138.72,1.4733,161.1787,1.708,74.5584
165448,SLG,10,1.021393,-32.5162,1.054576,-150.9772,1.034293,89.9356,1.2546,-59.975,1.2713,-178.4645,1.3302,62.5438
165448,SLG,20,1.029841,-31.735,1.047985,-150.8665,1.035724,89.5613,1.2447,-59.2183,1.279,-178.3351,1.3284,62.1656
165448,SLG,30,1.032644,-31.4719,1.045752,-150.8311,1.036258,89.436,1.2415,-58.9633,1.2816,-178.2934,1.3278,62.0388
165448,SLG,40,1.034043,-31.3398,1.044629,-150.8137,1.036535,89.3732,1.2399,-58.8352,1.2829,-178.2729,1.3274,61.9753
165448,LL,0,0.002582,-35.9803,0.007459,96.9542,1.350229,86.4699,0.0032,-63.4272,0.0098,69.5765,1.656,59.0086
165448,LL,10,1.018218,-31.7566,1.037582,-152.5408,1.047619,89.7064,1.2584,-59.2064,1.2913,-179.9802,1.3139,62.2783
165448,LL,20,1.028111,-31.3565,1.039565,-151.657,1.042486,89.4551,1.2467,-58.8348,1.2889,-179.102,1.3201,62.041
165448,LL,30,1.031459,-31.2199,1.040157,-151.3601,1.040787,89.3671,1.2429,-58.7078,1.2882,-178.8067,1.3222,61.9577
165448,LL,40,1.033142,-31.1509,1.040439,-151.2112,1.039941,89.3223,1.2409,-58.6437,1.2879,-178.6586,1.3232,61.9152
165448,3LG,0,0.005432,-101.4861,0.00544,138.6252,0.005428,18.5859,0.0068,-128.9108,0.0071,111.262,0.0073,-8.7414
165448,3LG,10,1.031369,-31.976,1.034407,-151.7999,1.030617,88.1498,1.243,-59.4636,1.2951,-179.2305,1.3348,60.7679
165448,3LG,20,1.03483,-31.4603,1.037853,-151.283,1.034047,88.6656,1.239,-58.9581,1.291,-178.7232,1.3305,61.2744
165448,3LG,30,1.03597,-31.2877,1.038987,-151.1099,1.035177,88.8383,1.2377,-58.7888,1.2896,-178.5533,1.3291,61.444
165448,3LG,40,1.036537,-31.2013,1.039551,-151.0233,1.035738,88.9247,1.237,-58.704,1.2889,-178.4682,1.3284,61.529
165449,SLG,0,0.001696,179.161,1.267877,-169.9607,1.365139,103.5379,0.0021,151.7162,1.5149,162.5385,1.6743,76.0765
165449,SLG,10,1.013392,-33.771,1.064847,-150.9081,1.028222,90.4008,1.2641,-61.207,1.2723,-178.409,1.3378,63.0253
165449,SLG,20,1.02598,-32.373,1.053221,-150.8209,1.032427,89.791,1.2492,-59.8451,1.2729,-178.3043,1.3325,62.4042
165449,SLG,30,1.030104,-31.8995,1.049263,-150.7982,1.034001,89.5883,1.2444,-59.3835,1.2775,-178.2704,1.3306,62.1973
165449,SLG,40,1.032151,-31.6614,1.04727,-150.7881,1.034821,89.4871,1.2421,-59.1513,1.2798,-178.2546,1.3296,62.0939
165449,LL,0,0.001696,-53.3807,0.004014,99.088,1.349633,87.4515,0.0021,-80.8,0.0053,71.6987,1.6553,59.9902
165449,LL,10,1.004019,-32.5285,1.03942,-153.7129,1.052038,90.2112,1.2755,-59.938,1.2891,178.8425,1.3086,62.771
165449,LL,20,1.020888,-31.7607,1.04084,-152.2473,1.044508,89.7243,1.2552,-59.2181,1.2874,-179.6958,1.3177,62.3048
165449,LL,30,1.026619,-31.4935,1.041089,-151.7544,1.042089,89.5503,1.2485,-58.9674,1.2871,-179.2036,1.3206,62.1374
165449,LL,40,1.029503,-31.3577,1.04117,-151.5072,1.040898,89.4611,1.2451,-58.84,1.287,-178.9566,1.3221,62.0514
165449,3LG,0,0.003217,-102.8286,0.003219,137.2104,0.003216,17.1994,0.004,-130.2533,0.0042,109.8472,0.0043,-10.1279
165449,3LG,10,1.027144,-32.692,1.030289,-152.5242,1.026554,87.4344,1.2479,-60.1675,1.3001,-179.9433,1.3399,60.0634
165449,3LG,20,1.032779,-31.8213,1.03586,-151.648,1.032079,88.3052,1.2413,-59.313,1.2933,-179.0826,1.333,60.9193
165449,3LG,30,1.034616,-31.529,1.037673,-151.3539,1.033879,88.5974,1.2392,-59.0261,1.2912,-178.7936,1.3307,61.2067
165449,3LG,40,1.035527,-31.3825,1.038572,-151.2065,1.034771,88.7438,1.2382,-58.8823,1.2901,-178.6487,1.3296,61.3507
287274,SLG,0,0.001351,-92.0523,1.29497,-167.5587,1.3129,104.8166,9729.6627,-92.0523,1.5473,164.9405,1.6102,77.3552
287274,SLG,10,0.99872,-34.6819,1.072169,-150.8847,1.024301,90.7483,720.173,-34.7288,1.281,-178.3856,1.3427,63.3833
287274,SLG,20,1.018649,-32.8481,1.057065,-150.7971,1.030154,89.965,367.808,-32.9384,1.2684,-178.2914,1.3354,62.5843
287274,SLG,30,1.025222,-32.2205,1.051861,-150.7795,1.032416,89.704,247.148,-32.3542,1.2744,-178.259,1.3325,62.3172
287274,SLG,40,1.028492,-31.9037,1.049232,-150.7729,1.033605,89.5738,186.2238,-32.0807,1.2775,-178.245,1.3311,62.1838
287274,LL,0,0.00204,-76.8822,0.002011,130.5941,1.339025,88.6735,14684.8989,-76.8822,14474.9324,130.5941,1.6422,61.2123
287274,LL,10,0.987966,-33.1358,1.034348,-154.683,1.059222,90.4908,712.4429,-33.1837,745.8344,-154.7289,1.3001,63.0308
287274,LL,20,1.011257,-32.0572,1.03716,-152.6961,1.046165,89.9151,365.1549,-32.1488,374.5015,-152.7872,1.3157,62.491
287274,LL,30,1.020127,-31.6969,1.038721,-152.0561,1.043148,89.6822,245.9308,-31.8318,250.4232,-152.1921,1.3193,62.2663
287274,LL,40,1.024608,-31.5124,1.039427,-151.7344,1.041674,89.5618,185.5289,-31.6906,188.2303,-151.9152,1.3211,62.1499
287274,3LG,0,0.002272,-93.25,0.002272,146.7474,0.002272,26.7507,16355.7591,-93.25,16358.0378,146.7474,16356.0957,26.7507
287274,3LG,10,1.015309,-33.2273,1.01853,-153.0678,1.014883,86.8996,732.0975,-33.2728,734.4642,-153.115,731.8746,86.8509
287274,3LG,20,1.026848,-32.097,1.029975,-151.9278,1.026235,88.0301,370.7504,-32.186,371.9231,-152.0201,370.6126,87.9349
287274,3LG,30,1.03066,-31.7146,1.03375,-151.5423,1.029982,88.4123,248.4474,-31.847,249.2358,-151.6795,248.3672,88.2706
287274,3LG,40,1.03256,-31.5224,1.03563,-151.3484,1.031848,88.6044,186.9516,-31.698,187.551,-151.5305,186.906,88.4164
283954,SLG,0,0.231974,-33.198,1.227281,-165.0992,1.259171,101.7862,0.2916,-60.6221,1.4664,167.3999,1.5443,74.3248
283954,SLG,10,1.002647,-34.4184,1.070322,-150.92,1.025735,90.6754,1.2772,-61.824,1.2788,-178.4209,1.3409,63.3066
283954,SLG,20,1.020802,-32.7287,1.056218,-150.8107,1.030792,89.9304,1.2553,-60.1859,1.2694,-178.3026,1.3346,62.548
283954,SLG,30,1.026703,-32.1435,1.051307,-150.7878,1.032825,89.6812,1.2484,-59.6177,1.2751,-178.2657,1.332,62.2933
283954,SLG,40,1.029621,-31.8469,1.048819,-150.7788,1.033906,89.5567,1.245,-59.3295,1.278,-178.2498,1.3307,62.1659
283954,LL,0,0.256895,-36.7448,0.218662,-159.8498,1.276992,88.3136,0.3229,-64.1696,0.287,172.7877,1.5662,60.8524
283954,LL,10,0.993594,-32.9343,1.036495,-154.488,1.058971,90.3885,1.2884,-60.3145,1.2926,178.0756,1.3004,62.9292
283954,LL,20,1.014126,-31.9691,1.038499,-152.5988,1.045986,89.8678,1.2632,-59.4072,1.2902,179.9592,1.3159,62.4442
283954,LL,30,1.022047,-31.6411,1.039672,-151.9918,1.043021,89.6518,1.2538,-59.1018,1.2888,-179.437,1.3195,62.2362
283954,LL,40,1.026051,-31.4717,1.040163,-151.6863,1.041575,89.5394,1.2491,-58.944,1.2882,-179.1329,1.3212,62.1278
283954,3LG,0,0.241644,-40.7875,0.241662,-160.8003,0.241683,79.2136,0.3038,-68.2122,0.3172,171.8365,0.3256,51.8863
283954,3LG,10,1.01922,-33.0832,1.022524,-152.9282,1.018867,87.0446,1.2572,-60.5358,1.3096,179.674,1.3496,59.6941
283954,3LG,20,1.028881,-32.0287,1.032055,-151.8618,1.028307,88.0991,1.2459,-59.5092,1.2979,-179.2859,1.3377,60.7234
283954,3LG,30,1.032034,-31.6699,1.035157,-151.499,1.031381,88.4575,1.2422,-59.1595,1.2942,-178.9317,1.3338,61.0735
283954,3LG,40,1.033597,-31.4892,1.036692,-151.3163,1.032904,88.638,1.2404,-58.9833,1.2923,-178.7533,1.3319,61.2499
283956,SLG,0,0.360744,-46.6508,1.22634,-162.273,1.198958,101.519,0.4535,-74.075,1.4653,170.2261,1.4705,74.0577
283956,SLG,10,1.003004,-34.3481,1.0698,-150.923,1.026032,90.6511,1.2767,-61.7546,1.2782,-178.4239,1.3405,63.2815
283956,SLG,20,1.020881,-32.7101,1.056078,-150.8121,1.030882,89.9244,1.2552,-60.1675,1.2696,-178.3036,1.3344,62.5417
283956,SLG,30,1.026737,-32.135,1.051243,-150.7885,1.032867,89.6785,1.2483,-59.6093,1.2752,-178.2663,1.332,62.2905
283956,SLG,40,1.02964,-31.8421,1.048783,-150.7793,1.03393,89.5552,1.245,-59.3248,1.278,-178.2501,1.3307,62.1643
283956,LL,0,0.406999,-46.0254,0.369611,-173.6902,1.247428,89.5087,0.5116,-73.4501,0.4851,158.9468,1.5299,62.0474
283956,LL,10,0.994574,-32.8981,1.036085,-154.4187,1.058645,90.3564,1.2872,-60.2811,1.2931,178.146,1.3008,62.8979
283956,LL,20,1.01438,-31.9583,1.038365,-152.5813,1.045918,89.8586,1.2629,-59.3971,1.2903,179.9771,1.316,62.4351
283956,LL,30,1.022162,-31.636,1.039608,-151.9839,1.042992,89.6475,1.2537,-59.0971,1.2889,-179.429,1.3195,62.232
283956,LL,40,1.026116,-31.4688,1.040125,-151.6818,1.04156,89.5369,1.2491,-58.9413,1.2882,-179.1284,1.3213,62.1253
283956,3LG,0,0.402453,-51.2208,0.402753,-171.2337,0.402577,68.7963,0.5059,-78.6454,0.5286,161.4031,0.5424,41.469
283956,3LG,10,1.019336,-33.0525,1.022632,-152.8968,1.018971,87.0753,1.257,-60.5054,1.3094,179.7051,1.3495,59.7245
283956,3LG,20,1.028906,-32.0208,1.032078,-151.8537,1.028328,88.107,1.2458,-59.5013,1.2979,-179.2778,1.3376,60.7313
283956,3LG,30,1.032044,-31.6663,1.035166,-151.4954,1.03139,88.4611,1.2422,-59.156,1.2942,-178.9281,1.3338,61.0771
283956,3LG,40,1.033602,-31.4871,1.036697,-151.3142,1.032909,88.64,1.2404,-58.9813,1.2923,-178.7512,1.3319,61.2519
189963,SLG,0,0.500474,-38.1518,1.179164,-160.3867,1.166958,98.983,0.6291,-65.5763,1.4089,172.1125,1.4312,71.5217
189963,SLG,10,1.003435,-34.3015,1.072749,-151.0756,1.030428,90.6074,1.2762,-61.7092,1.2817,-178.5765,1.335,63.226
189963,SLG,20,1.020264,-32.6683,1.05589,-150.8299,1.031226,89.9224,1.2559,-60.124,1.2698,-178.3209,1.334,62.5388
189963,SLG,30,1.02637,-32.1128,1.051153,-150.7985,1.03305,89.6779,1.2488,-59.586,1.2753,-178.2761,1.3317,62.2894
189963,SLG,40,1.029382,-31.8276,1.048727,-150.7861,1.03405,89.555,1.2453,-59.3095,1.2781,-178.2568,1.3305,62.1638
189963,LL,0,0.568812,-38.3837,0.503984,-165.5523,1.205337,89.0001,0.7868,-65.6759,0.6615,167.0847,1.4783,61.5388
189963,LL,10,0.994134,-32.7423,1.03347,-154.3803,1.059423,90.2928,1.2877,-60.124,1.2962,178.1917,1.2998,62.8322
189963,LL,20,1.016721,-31.9721,1.040486,-152.6652,1.049679,89.7787,1.2602,-59.4176,1.2878,179.8872,1.3114,62.345
189963,LL,30,1.021988,-31.6107,1.039177,-151.9782,1.043135,89.6379,1.2539,-59.0713,1.2894,-179.4221,1.3193,62.2221
189963,LL,40,1.025977,-31.4523,1.039837,-151.6784,1.041658,89.5309,1.2492,-58.9244,1.2886,-179.1241,1.3211,62.1191
189963,3LG,0,0.554794,-43.6778,0.554998,-163.6921,0.555165,76.3345,0.7535,-70.9944,0.787,169.0478,0.8082,49.1073
189963,3LG,10,1.021146,-33.0672,1.02468,-152.9217,1.020972,87.0676,1.2549,-60.5254,1.3069,179.6746,1.347,59.7115
189963,3LG,20,1.028502,-32.0004,1.031785,-151.8377,1.028015,88.1307,1.2463,-59.4798,1.2983,-179.261,1.338,60.7558
189963,3LG,30,1.031786,-31.6554,1.034985,-151.4873,1.031192,88.4745,1.2425,-59.1443,1.2944,-178.9195,1.3341,61.091
189963,3LG,40,1.033413,-31.4799,1.036567,-151.3091,1.032765,88.6492,1.2406,-58.9735,1.2925,-178.7457,1.3321,61.2615
181977,SLG,0,0.581128,-36.8852,1.159396,-159.0444,1.144283,97.7468,0.8161,-64.1576,1.3853,173.4547,1.4034,70.2855
181977,SLG,10,1.002898,-34.2177,1.072285,-151.0996,1.031032,90.5971,1.2769,-61.624,1.2812,-178.6005,1.3343,63.2141
181977,SLG,20,1.020069,-32.6451,1.055768,-150.8374,1.031402,89.9204,1.2562,-60.1002,1.2699,-178.328,1.3338,62.5364
181977,SLG,30,1.026259,-32.102,1.051101,-150.8023,1.033135,89.6775,1.2489,-59.5749,1.2753,-178.2797,1.3316,62.2888
181977,SLG,40,1.029308,-31.8212,1.048699,-150.7885,1.0341,89.555,1.2454,-59.3029,1.2781,-178.2591,1.3304,62.1636
181977,LL,0,0.649683,-37.0923,0.583679,-163.1808,1.18136,89.0263,0.9791,-64.2774,0.8582,169.6045,1.4489,61.5651
181977,LL,10,0.994662,-32.6614,1.032231,-154.3339,1.059565,90.2506,1.287,-60.0446,1.2977,178.2415,1.2997,62.7896
181977,LL,20,1.016776,-31.9469,1.04009,-152.6568,1.049787,89.768,1.2601,-59.3926,1.2883,179.8968,1.3113,62.334
181977,LL,30,1.022006,-31.5985,1.038989,-151.9739,1.043184,89.6329,1.2539,-59.0592,1.2896,-179.4173,1.3193,62.2169
181977,LL,40,1.025977,-31.4449,1.039722,-151.6761,1.041691,89.5281,1.2492,-58.917,1.2887,-179.1215,1.3211,62.1162
181977,3LG,0,0.634655,-41.6917,0.635061,-161.7011,0.635166,78.3319,0.9434,-68.8934,0.9858,171.1485,1.0121,51.2111
181977,3LG,10,1.020937,-33.0299,1.024477,-152.8864,1.020788,87.1042,1.2552,-60.4875,1.3072,179.7105,1.3472,59.7486
181977,3LG,20,1.028414,-31.9895,1.031709,-151.8279,1.027944,88.1416,1.2464,-59.4686,1.2983,-179.251,1.3381,60.7669
181977,3LG,30,1.031731,-31.6501,1.034941,-151.4827,1.03115,88.4799,1.2426,-59.1388,1.2944,-178.9147,1.3341,61.0966
181977,3LG,40,1.033373,-31.4767,1.036537,-151.3064,1.032736,88.6525,1.2407,-58.9702,1.2925,-178.7429,1.3321,61.2649
181924,SLG,0,0.592872,-33.3897,1.14418,-159.2155,1.151162,97.0471,0.844,-60.6447,1.3671,173.2836,1.4118,69.5858
181924,SLG,10,1.001744,-34.2061,1.072395,-151.1258,1.031396,90.6169,1.2783,-61.6091,1.2813,-178.6267,1.3338,63.2329
181924,SLG,20,1.019692,-32.6426,1.055817,-150.8455,1.031502,89.9275,1.2566,-60.0966,1.2699,-178.3363,1.3337,62.5432
181924,SLG,30,1.026053,-32.1013,1.051145,-150.8062,1.033179,89.6818,1.2491,-59.5735,1.2753,-178.2837,1.3316,62.2929
181924,SLG,40,1.029172,-31.8208,1.048731,-150.7909,1.034127,89.5579,1.2455,-59.3021,1.2781,-178.2616,1.3304,62.1665
181924,LL,0,0.639483,-34.9059,0.580305,-157.8209,1.174063,88.6396,0.9548,-62.1022,0.8499,174.9595,1.4399,61.1784
181924,LL,10,0.994225,-32.6251,1.031004,-154.3548,1.060022,90.2367,1.2876,-60.0071,1.2992,178.224,1.3001,62.7755
181924,LL,20,1.016549,-31.9346,1.039715,-152.6664,1.049982,89.7665,1.2604,-59.3796,1.2887,179.8882,1.3111,62.3319
181924,LL,30,1.021879,-31.5922,1.038804,-151.9784,1.043281,89.6326,1.254,-59.0525,1.2898,-179.4213,1.3192,62.2163
181924,LL,40,1.025886,-31.4408,1.039605,-151.679,1.041756,89.5281,1.2493,-58.9126,1.2889,-179.1241,1.321,62.116
181924,3LG,0,0.618641,-37.8732,0.618982,-157.8781,0.619105,82.1513,0.9053,-65.0939,0.9459,174.9532,0.9711,55.0128
181924,3LG,10,1.020382,-33.0335,1.023923,-152.8904,1.020237,87.1005,1.2558,-60.4895,1.3079,179.708,1.3479,59.7463
181924,3LG,20,1.028232,-31.9897,1.03153,-151.8283,1.027765,88.1416,1.2466,-59.4683,1.2986,-179.2509,1.3383,60.7673
181924,3LG,30,1.031629,-31.6498,1.034843,-151.4825,1.031051,88.4803,1.2427,-59.1383,1.2946,-178.9143,1.3342,61.0972
181924,3LG,40,1.033305,-31.4763,1.036471,-151.3061,1.032669,88.653,1.2407,-58.9696,1.2926,-178.7425,1.3322,61.2656
181993,SLG,0,0.625473,-32.3578,1.133202,-158.7565,1.145031,96.4057,0.9215,-59.5701,1.354,173.7426,1.4043,68.9444
181993,SLG,10,1.00114,-34.1672,1.072244,-151.1448,1.031776,90.6192,1.279,-61.5685,1.2811,-178.6457,1.3333,63.2341
181993,SLG,20,1.019473,-32.6339,1.055804,-150.8517,1.031605,89.9302,1.2569,-60.0873,1.2699,-178.3424,1.3335,62.5456
181993,SLG,30,1.025935,-32.0979,1.051153,-150.8092,1.033223,89.6837,1.2493,-59.5698,1.2753,-178.2867,1.3315,62.2948
181993,SLG,40,1.029095,-31.8192,1.048741,-150.7928,1.034152,89.5594,1.2456,-59.3002,1.2781,-178.2635,1.3304,62.1679
181993,LL,0,0.664944,-33.9539,0.610701,-155.934,1.163623,88.5568,1.0153,-61.1235,0.9253,176.8874,1.4271,61.0956
181993,LL,10,0.99438,-32.5806,1.030029,-154.3404,1.060218,90.2122,1.2874,-59.963,1.3004,178.2411,1.3003,62.7511
181993,LL,20,1.016529,-31.9208,1.039418,-152.6659,1.050084,89.7608,1.2604,-59.3658,1.2891,179.8896,1.311,62.3259
181993,LL,30,1.021847,-31.5856,1.038663,-151.9791,1.04334,89.6304,1.2541,-59.0458,1.29,-179.4216,1.3191,62.214
181993,LL,40,1.025858,-31.4369,1.03952,-151.6799,1.041795,89.5271,1.2494,-58.9086,1.289,-179.1247,1.321,62.1149
181993,3LG,0,0.644033,-36.2998,0.644436,-156.2955,0.644498,83.7302,0.9656,-63.491,1.0091,176.564,1.0359,56.619
181993,3LG,10,1.020127,-33.0217,1.023647,-152.8775,1.019961,87.1119,1.2561,-60.4769,1.3082,179.7216,1.3482,59.7585
181993,3LG,20,1.028146,-31.9869,1.031437,-151.8251,1.027672,88.1443,1.2467,-59.4653,1.2987,-179.2475,1.3385,60.7702
181993,3LG,30,1.031583,-31.6486,1.034792,-151.4811,1.031001,88.4815,1.2427,-59.1369,1.2946,-178.9128,1.3343,61.0985
181993,3LG,40,1.033275,-31.4757,1.036438,-151.3053,1.032636,88.6536,1.2408,-58.9689,1.2926,-178.7416,1.3323,61.2663
181994,SLG,0,0.658844,-31.8313,1.123676,-158.2141,1.137262,95.8043,1.0009,-59.0068,1.3426,174.2851,1.3948,68.343
181994,SLG,10,1.000713,-34.1165,1.071961,-151.1614,1.03218,90.6135,1.2795,-61.5166,1.2808,-178.6622,1.3328,63.2273
181994,SLG,20,1.019324,-32.6209,1.055737,-150.857,1.031719,89.9295,1.2571,-60.0738,1.27,-178.3475,1.3334,62.5446
181994,SLG,30,1.025861,-32.092,1.051125,-150.8116,1.033276,89.6836,1.2494,-59.5638,1.2753,-178.2891,1.3315,62.2945
181994,SLG,40,1.029051,-31.8158,1.048726,-150.7942,1.034182,89.5593,1.2457,-59.2967,1.2781,-178.2649,1.3303,62.1678
181994,LL,0,0.69475,-33.224,0.645233,-154.8951,1.153525,88.5305,1.0862,-60.3663,1.011,177.9653,1.4147,61.0693
181994,LL,10,0.994719,-32.5342,1.02911,-154.3111,1.060299,90.1832,1.287,-59.9176,1.3015,178.273,1.3004,62.722
181994,LL,20,1.016594,-31.9064,1.039137,-152.6598,1.050138,89.7527,1.2603,-59.3515,1.2894,179.8964,1.3109,62.3177
181994,LL,30,1.021869,-31.5788,1.038531,-151.9767,1.04337,89.6268,1.2541,-59.039,1.2901,-179.4188,1.3191,62.2103
181994,LL,40,1.025869,-31.4329,1.039443,-151.6785,1.041814,89.525,1.2494,-58.9047,1.2891,-179.1231,1.321,62.1128
181994,3LG,0,0.675441,-35.2548,0.675956,-155.2386,0.675906,84.7828,1.0403,-62.4142,1.0873,177.6511,1.1159,57.7008
181994,3LG,10,1.019929,-33.0039,1.02343,-152.8583,1.019737,87.1298,1.2563,-60.4585,1.3085,179.7415,1.3485,59.7769
181994,3LG,20,1.028085,-31.9823,1.03137,-151.8199,1.027601,88.1489,1.2468,-59.4605,1.2988,-179.2421,1.3386,60.7751
181994,3LG,30,1.031553,-31.6465,1.034759,-151.4786,1.030965,88.4836,1.2428,-59.1347,1.2947,-178.9102,1.3343,61.1008
181994,3LG,40,1.033257,-31.4745,1.036418,-151.3038,1.032614,88.6549,1.2408,-58.9676,1.2927,-178.74,1.3323,61.2676
181891,SLG,0,0.702705,-32.5863,1.117191,-157.2935,1.121891,95.2305,1.1051,-59.7218,1.3348,175.2057,1.3759,67.7693
181891,SLG,10,1.00077,-34.0214,1.071272,-151.1748,1.032722,90.5855,1.2795,-61.4217,1.28,-178.6756,1.3322,63.1979
181891,SLG,20,1.019292,-32.593,1.055531,-150.8624,1.031901,89.9219,1.2571,-60.0459,1.2702,-178.3523,1.3332,62.5365
181891,SLG,30,1.025843,-32.0785,1.051027,-150.8142,1.033366,89.6797,1.2494,-59.5502,1.2754,-178.2913,1.3314,62.2904
181891,SLG,40,1.029042,-31.8077,1.048668,-150.7955,1.034235,89.5569,1.2457,-59.2886,1.2782,-178.2661,1.3303,62.1652
181891,LL,0,0.744162,-33.6512,0.692425,-155.7948,1.141124,88.6854,1.2036,-60.7554,1.1282,177.109,1.3995,61.2242
181891,LL,10,0.995701,-32.4687,1.028283,-154.2368,1.060118,90.1376,1.2858,-59.8548,1.3025,178.3495,1.3002,62.6765
181891,LL,20,1.016859,-31.8845,1.038839,-152.6401,1.050126,89.7381,1.26,-59.3304,1.2898,179.917,1.3109,62.3031
181891,LL,30,1.02199,-31.568,1.038383,-151.9674,1.04337,89.6196,1.2539,-59.0286,1.2903,-179.4091,1.3191,62.2031
181891,LL,40,1.025942,-31.4264,1.039354,-151.6728,1.041814,89.5206,1.2493,-58.8984,1.2892,-179.1172,1.321,62.1083
181891,3LG,0,0.725711,-35.8896,0.726502,-155.8598,0.726177,84.16,1.1598,-63.007,1.2128,177.0701,1.244,57.1168
181891,3LG,10,1.020004,-32.9625,1.023443,-152.8159,1.019775,87.168,1.2563,-60.4174,1.3084,179.7838,1.3485,59.8151
181891,3LG,20,1.028097,-31.9704,1.031354,-151.808,1.027604,88.1592,1.2468,-59.4486,1.2988,-179.2301,1.3386,60.7854
181891,3LG,30,1.03156,-31.6407,1.034749,-151.4728,1.030967,88.4884,1.2427,-59.1289,1.2947,-178.9044,1.3343,61.1056
181891,3LG,40,1.033262,-31.4709,1.036411,-151.3004,1.032616,88.6577,1.2408,-58.9641,1.2927,-178.7365,1.3323,61.2704
255335,SLG,0,0.712658,-32.1235,1.113225,-157.1773,1.120952,95.002,1.1288,-59.2509,1.3301,175.3218,1.3748,67.5407
255335,SLG,10,1.000402,-34.0085,1.071274,-151.1843,1.032881,90.5909,1.2799,-61.4078,1.28,-178.6852,1.332,63.2029
255335,SLG,20,1.021604,-32.6748,1.059064,-150.9532,1.035136,89.88,1.2544,-60.1342,1.2661,-178.4532,1.3292,62.4859
255335,SLG,30,1.025774,-32.0788,1.051048,-150.8156,1.033376,89.6818,1.2495,-59.5503,1.2754,-178.2928,1.3313,62.2924
255335,SLG,40,1.028998,-31.8082,1.048682,-150.7965,1.03424,89.5584,1.2457,-59.289,1.2782,-178.2671,1.3303,62.1667
255335,LL,0,0.750336,-32.9585,0.704699,-154.9977,1.138341,88.6474,1.2183,-60.0585,1.1586,177.916,1.3961,61.1862
255335,LL,10,0.995646,-32.452,1.027801,-154.2308,1.060219,90.1291,1.2858,-59.8379,1.3031,178.3568,1.3003,62.668
255335,LL,20,1.016808,-31.8796,1.038695,-152.6411,1.050175,89.7366,1.2601,-59.3253,1.29,179.9164,1.3108,62.3016
255335,LL,30,1.021953,-31.5659,1.038317,-151.9688,1.043398,89.6195,1.254,-59.0263,1.2904,-179.4103,1.319,62.2029
255335,LL,40,1.025914,-31.4253,1.039316,-151.674,1.041832,89.5208,1.2493,-58.8972,1.2892,-179.1183,1.3209,62.1085
255335,3LG,0,0.734621,-35.0041,0.735465,-154.969,0.735111,85.0495,1.181,-62.115,1.235,177.9671,1.2668,58.0124
255335,3LG,10,1.01976,-32.9584,1.023231,-152.8102,1.019523,87.1753,1.2565,-60.4126,1.3087,179.7901,1.3488,59.8231
255335,3LG,20,1.028018,-31.9703,1.031292,-151.8069,1.027518,88.161,1.2469,-59.4483,1.2989,-179.2289,1.3387,60.7874
255335,3LG,30,1.031519,-31.641,1.034719,-151.4725,1.030921,88.4892,1.2428,-59.1291,1.2947,-178.904,1.3344,61.1065
255335,3LG,40,1.033236,-31.4713,1.036393,-151.3002,1.032585,88.6582,1.2408,-58.9644,1.2927,-178.7364,1.3323,61.2709
182030,SLG,0,0.725026,-32.4279,1.112,-156.9024,1.116259,94.8584,1.1582,-59.5458,1.3286,175.5967,1.369,67.3972
182030,SLG,10,1.000477,-33.9784,1.071062,-151.1873,1.033033,90.582,1.2798,-61.3779,1.2797,-178.6882,1.3318,63.1936
182030,SLG,20,1.021603,-32.6663,1.059007,-150.9546,1.035188,89.8779,1.2544,-60.1257,1.2662,-178.4544,1.3291,62.4837
182030,SLG,30,1.025769,-32.0749,1.051023,-150.8164,1.033401,89.6809,1.2495,-59.5464,1.2754,-178.2935,1.3313,62.2915
182030,SLG,40,1.028994,-31.806,1.048668,-150.797,1.034255,89.5579,1.2457,-59.2868,1.2782,-178.2675,1.3303,62.1662
182030,LL,0,0.764447,-32.9858,0.720304,-155.3484,1.135267,88.7186,1.2519,-60.0765,1.1974,177.577,1.3924,61.2574
182030,LL,10,0.995938,-32.4341,1.02762,-154.2032,1.06013,90.1167,1.2855,-59.8208,1.3033,178.385,1.3002,62.6555
182030,LL,20,1.016884,-31.8735,1.038618,-152.6341,1.050164,89.7326,1.26,-59.3194,1.29,179.9236,1.3109,62.2976
182030,LL,30,1.021985,-31.5629,1.038278,-151.9658,1.043396,89.6176,1.2539,-59.0234,1.2904,-179.4072,1.319,62.201
182030,LL,40,1.025932,-31.4235,1.039293,-151.6724,1.041832,89.5197,1.2493,-58.8954,1.2892,-179.1166,1.3209,62.1074
182030,3LG,0,0.750748,-35.1393,0.751703,-155.1005,0.751256,84.9185,1.2193,-62.2389,1.2753,177.8464,1.3079,57.8917
182030,3LG,10,1.01977,-32.943,1.023235,-152.7945,1.019526,87.1905,1.2565,-60.3973,1.3087,179.8058,1.3488,59.8383
182030,3LG,20,1.028014,-31.9662,1.031285,-151.8028,1.027511,88.165,1.2469,-59.4442,1.2989,-179.2247,1.3387,60.7914
182030,3LG,30,1.031516,-31.6392,1.034715,-151.4706,1.030917,88.491,1.2428,-59.1273,1.2947,-178.9021,1.3344,61.1083
182030,3LG,40,1.033234,-31.4703,1.036391,-151.2992,1.032583,88.6592,1.2408,-58.9633,1.2927,-178.7353,1.3323,61.272
182153,SLG,0,0.791468,-33.4592,1.103698,-155.4867,1.093238,93.9851,1.3161,-60.5335,1.3187,177.0125,1.3408,66.5239
182153,SLG,10,1.001114,-33.7816,1.069633,-151.2045,1.033986,90.5201,1.2791,-61.1828,1.278,-178.7054,1.3306,63.1291
182153,SLG,20,1.019178,-32.5261,1.055107,-150.8758,1.032317,89.9083,1.2572,-59.9786,1.2707,-178.3646,1.3327,62.5218
182153,SLG,30,1.025753,-32.0478,1.050834,-150.8214,1.033567,89.6744,1.2495,-59.5192,1.2756,-178.2981,1.3311,62.2845
182153,SLG,40,1.028977,-31.7903,1.04856,-150.8,1.034352,89.5542,1.2457,-59.271,1.2783,-178.2703,1.3301,62.1622
182153,LL,0,0.837626,-33.484,0.793545,-156.4242,1.116978,88.9915,1.4258,-60.5338,1.3792,176.5474,1.3699,61.5303
182153,LL,10,0.998255,-32.3029,1.02645,-154.0327,1.059558,90.0284,1.2826,-59.6961,1.3048,178.5588,1.2997,62.5674
182153,LL,20,1.017494,-31.8269,1.03809,-152.59,1.050098,89.7034,1.2592,-59.2746,1.2907,179.9692,1.3109,62.2686
182153,LL,30,1.022244,-31.5396,1.038003,-151.9466,1.043388,89.6037,1.2536,-59.0009,1.2908,-179.3873,1.319,62.1872
182153,LL,40,1.026076,-31.4096,1.039125,-151.6615,1.041832,89.5115,1.2491,-58.882,1.2894,-179.1052,1.3209,62.0992
182153,3LG,0,0.826868,-35.858,0.828511,-155.7926,0.827366,84.2254,1.4003,-62.9131,1.466,177.1968,1.5019,57.2397
182153,3LG,10,1.020148,-32.8477,1.023585,-152.6964,1.019855,87.2863,1.2561,-60.303,1.3083,179.9029,1.3484,59.9331
182153,3LG,20,1.028063,-31.9394,1.031326,-151.775,1.027544,88.1922,1.2468,-59.4175,1.2988,-179.1971,1.3386,60.8185
182153,3LG,30,1.031528,-31.6267,1.034724,-151.4576,1.03092,88.5038,1.2428,-59.1148,1.2947,-178.8891,1.3344,61.1211
182153,3LG,40,1.033237,-31.4631,1.036393,-151.2916,1.03258,88.6667,1.2408,-58.9562,1.2927,-178.7277,1.3323,61.2795
182158,SLG,0,0.811668,-33.3958,1.099505,-155.1005,1.087811,93.6407,1.3641,-60.4588,1.3137,177.3986,1.3341,66.1795
182158,SLG,10,1.001203,-33.7056,1.069109,-151.2144,1.034398,90.4992,1.2789,-61.1071,1.2774,-178.7153,1.3301,63.1071
182158,SLG,20,1.019131,-32.5038,1.054963,-150.8805,1.032461,89.9037,1.2573,-59.9561,1.2709,-178.3689,1.3325,62.5168
182158,SLG,30,1.025718,-32.0373,1.050767,-150.824,1.033638,89.6724,1.2495,-59.5086,1.2757,-178.3004,1.331,62.2824
182158,SLG,40,1.028954,-31.7841,1.048522,-150.8016,1.034394,89.5531,1.2458,-59.2648,1.2783,-178.2717,1.3301,62.161
182158,LL,0,0.855862,-33.3372,0.814856,-156.1337,1.110989,89.031,1.4692,-60.3783,1.4321,176.849,1.3626,61.5698
182158,LL,10,0.999081,-32.2528,1.02582,-153.969,1.059382,89.993,1.2816,-59.6484,1.3055,178.6242,1.2999,62.5325
182158,LL,20,1.017712,-31.8082,1.037822,-152.5739,1.050092,89.6915,1.259,-59.2565,1.291,179.986,1.3109,62.2567
182158,LL,30,1.022334,-31.5301,1.037865,-151.9398,1.043396,89.5981,1.2535,-58.9917,1.2909,-179.3801,1.319,62.1816
182158,LL,40,1.026126,-31.4039,1.039041,-151.6577,1.041839,89.5082,1.2491,-58.8764,1.2895,-179.1012,1.3209,62.0959
182158,3LG,0,0.846282,-35.5743,0.848159,-155.4948,0.846722,84.519,1.4464,-62.6199,1.5148,177.5038,1.5512,57.542
182158,3LG,10,1.020181,-32.8136,1.023597,-152.6614,1.019868,87.3198,1.2561,-60.269,1.3083,179.9378,1.3484,59.9666
182158,3LG,20,1.028051,-31.9297,1.031307,-151.7651,1.027527,88.2016,1.2468,-59.4077,1.2988,-179.1871,1.3386,60.828
182158,3LG,30,1.031519,-31.6221,1.034711,-151.453,1.030908,88.5083,1.2428,-59.1102,1.2947,-178.8844,1.3344,61.1255
182158,3LG,40,1.033231,-31.4604,1.036384,-151.2889,1.032572,88.6693,1.2408,-58.9535,1.2927,-178.725,1.3323,61.2821
182162,SLG,0,0.828426,-33.291,1.095789,-154.7855,1.083604,93.3424,1.4039,-60.3453,1.3093,177.7136,1.329,65.8812
182162,SLG,10,1.001275,-33.6345,1.068624,-151.2239,1.034789,90.48,1.2789,-61.0362,1.2768,-178.7248,1.3296,63.0869
182162,SLG,20,1.021542,-32.564,1.05831,-150.9728,1.035813,89.8532,1.2544,-60.0233,1.267,-178.4707,1.3283,62.4572
182162,SLG,30,1.025681,-32.0274,1.050705,-150.8264,1.033707,89.6707,1.2496,-59.4986,1.2758,-178.3027,1.3309,62.2804
182162,SLG,40,1.028928,-31.7784,1.048487,-150.8031,1.034435,89.5522,1.2458,-59.259,1.2784,-178.2731,1.33,62.16
182162,LL,0,0.870424,-33.1936,0.832159,-155.8181,1.105914,89.0557,1.4656,-60.2546,1.475,177.173,1.3564,61.5945
182162,LL,10,0.999855,-32.2069,1.025217,-153.9091,1.059219,89.9598,1.2806,-59.6046,1.3063,178.6857,1.3001,62.4997
182162,LL,20,1.01792,-31.7905,1.037559,-152.5588,1.05009,89.6801,1.2587,-59.2394,1.2913,-179.9981,1.3109,62.2453
182162,LL,30,1.022421,-31.5211,1.03773,-151.9336,1.043406,89.5927,1.2534,-58.9829,1.2911,-179.3734,1.319,62.1761
182162,LL,40,1.026173,-31.3985,1.038959,-151.6543,1.041848,89.505,1.249,-58.8711,1.2896,-179.0976,1.3209,62.0927
182162,3LG,0,0.86165,-35.2909,0.863723,-155.199,0.862028,84.8107,1.4803,-62.3311,1.544,177.8004,1.5893,57.8397
182162,3LG,10,1.020203,-32.7823,1.023601,-152.6294,1.019872,87.3506,1.256,-60.2377,1.3083,179.9699,1.3484,59.9974
182162,3LG,20,1.028038,-31.9207,1.031287,-151.756,1.027508,88.2103,1.2468,-59.3987,1.2989,-179.1779,1.3387,60.8368
182162,3LG,30,1.031509,-31.618,1.034698,-151.4487,1.030896,88.5123,1.2428,-59.106,1.2947,-178.8802,1.3344,61.1296
182162,3LG,40,1.033224,-31.458,1.036375,-151.2864,1.032564,88.6716,1.2408,-58.951,1.2927,-178.7225,1.3324,61.2844
